*Heading
**--------------------------------------------------------------------
** Job name: EXAMPLE_MJC
** Generated by: David Morin
**--------------------------------------------------------------------
*Preprint, echo=NO, model=NO, history=NO, contact=NO
**--------------------------------------------------------------------
** PARTS
**--------------------------------------------------------------------
*Part, name=R2
*Node
      1,           0.,    2.7320509
      2,          2.5,    2.7320509
      3,          2.5,          8.5
      4,          2.5,         17.5
      5,           0.,         17.5
      6,           0.,          8.5
      7,           0.,           0.
      8,          1.5,           0.
      9,          2.5,   1.73205078
     10,  0.075757578,    2.7320509
     11,  0.151515156,    2.7320509
     12,  0.227272734,    2.7320509
     13,  0.303030312,    2.7320509
     14,  0.378787875,    2.7320509
     15,  0.454545468,    2.7320509
     16,  0.530303001,    2.7320509
     17,  0.606060624,    2.7320509
     18,  0.681818187,    2.7320509
     19,   0.75757575,    2.7320509
     20,  0.833333313,    2.7320509
** ... 1674 like lines cut
*Element, type=CAX4R
  1,  59, 244, 243,  58
  2, 574, 568, 565, 575
  3,  66, 564, 561,   3
  4,  41,   2,  42, 288
  5, 285,  43,  44, 345
  6, 201,  38,  39, 579
  7, 202,  37,  38, 201
  8,  37, 202, 203,  36
  9,  36, 203, 226,  35
 10, 204,  34,  35, 226
 11, 205,  33,  34, 204
 12,  33, 205, 222,  32
 13, 281, 262, 222, 205
 14, 206,  30,  31, 223
 15, 207,  29,  30, 206
 16,  29, 207, 208,  28
 17,  28, 208, 209,  27
 18, 223, 222, 262, 276
 19,  26, 224, 210,  25
 20,  25, 210, 211,  24
** ... 1589 like lines cut
*Nset, nset=SYMY
   7,   8, 143, 144, 145, 146, 147, 148, 149, 150, 151, 152, 153, 154, 155, 156
 157, 158, 159, 160, 161
*Elset, elset=SYMY
 495, 496, 525, 526, 530, 532, 534, 535, 536, 537, 538, 539, 540, 543, 544, 545
 609, 634, 642, 649
*Nset, nset=LOAD
  3,  4,  5, 66, 67, 68, 69, 70, 71, 72, 73, 74, 75
*Elset, elset=LOAD
   3,  50,  52,  53,  54,  55,  56,  58,  59, 438, 442
*Nset, nset=AXY
   1,   5,   6,   7,  76,  77,  78,  79,  80,  81,  82,  83,  84,  85,  86,  87
  88,  89,  90,  91,  92,  93,  94,  95,  96,  97,  98,  99, 100, 101, 102, 103
 104, 105, 106, 107, 108, 109, 110, 111, 112, 113, 114, 115, 116, 117, 118, 119
 120, 121, 122, 123, 124, 125, 126, 127, 128, 129, 130, 131, 132, 133, 134, 135
 136, 137, 138, 139, 140, 141, 142
*Elset, elset=AXY
  32,  33,  51,  58,  60,  66,  75,  76,  77,  78,  79,  80,  81,  82,  83,  84
  85,  94,  98, 100, 104, 107, 117, 148, 175, 229, 235, 439, 443, 444, 445, 446
 447, 448, 483, 494, 495, 501, 502, 503, 505, 507, 509, 516, 517, 523, 524, 549
 550, 575, 594, 598, 599, 600, 601, 603, 604, 605, 606, 611, 614, 626, 632, 643
 646, 650, 658, 673, 689, 727
*Nset, nset=DIAMETER
 8,
*Nset, nset=NODES, generate
    1,  1694,     1
*Elset, elset=ELEMENTS, generate
    1,  1609,     1
*Solid Section, elset=ELEMENTS, material=EXAMPLE_MJC
,
*End Part
**--------------------------------------------------------------------
** ASSEMBLY
**--------------------------------------------------------------------
*Assembly, name=Assembly
**  
*Instance, name=R2-1, part=R2
*End Instance
**  
*Node
      2,           0.,         18.5,           0.
*Nset, nset=R2
 2,
*Surface, type=NODE, name=R2-1_LOAD_CNS_, internal
R2-1.LOAD, 1.
**--------------------------------------------------------------------
** Constraint: MPC
**--------------------------------------------------------------------
*MPC
BEAM, R2-1.LOAD, R2
*End Assembly
**--------------------------------------------------------------------
** Amplitude curve
**--------------------------------------------------------------------
*Amplitude, name=Amp-1, definition=SMOOTH STEP
             0.,          0.,         0.001,              1.
**--------------------------------------------------------------------
** MATERIALS
**--------------------------------------------------------------------
*material,name=EXAMPLE_MJC
*density
7.8e-9
*elastic
210000.0, 0.3
*specific heat
4.52e8,
*inelastic heat fraction
0.9,
*plastic, hardening=user, properties=16
** SIGMA0,      T1,    Q1,     T2,    Q2,    T3,     Q3, BLANK
    777.0,  3693.4, 125.2, 240.34, 2670.5,   0.0,    0.0,   0.0
**      C,   PDOT0,     m,     Tr,    Tm, BLANK,  BLANK, BLANK
     0.01,  0.0005,   1.0,  293.0, 1800.0,   0.0,    0.0,   0.0
*User defined field, properties=4
**  Wc, DCRIT,     Tc,    sTf
1492.0,   1.0, 1800.0,   0.95
*Depvar, delete=3
3,
1,PEEQ,"Equivalent plastic strain"
2,D,"Damage variable"
3,STATUS,"Failure status"
**--------------------------------------------------------------------
** BOUNDARY CONDITIONS
**--------------------------------------------------------------------
*Boundary
R2-1.AXY, 1, 1
R2-1.AXY, 6, 6
*Boundary
R2, 1, 1
R2, 6, 6
*Boundary
R2-1.SYMY, YSYMM
*initial conditions, type=temperature
R2-1.NODES, 293.0
**--------------------------------------------------------------------
** STEP
**--------------------------------------------------------------------
*Step, name=LOADING, nlgeom=YES
*Dynamic, Explicit, ADIABATIC
, 0.01
*Bulk Viscosity
0.06, 1.2
**--------------------------------------------------------------------
** BOUNDARY CONDITIONS
**--------------------------------------------------------------------
*Boundary, amplitude=Amp-1, type=VELOCITY
R2, 2, 2, 50.0
**--------------------------------------------------------------------
** OUTPUT REQUESTS
**--------------------------------------------------------------------
*Restart, write, number interval=1, time marks=NO
**--------------------------------------------------------------------
** FIELD OUTPUT
**--------------------------------------------------------------------
*Output, field, number interval=100
*Node Output
U, 
*Element Output, directions=YES
PEEQ, S, SDV, STATUS, TEMP
**--------------------------------------------------------------------
** HISTORY OUTPUT
**--------------------------------------------------------------------
*Output, history, variable=PRESELECT
*Output, history, time interval=1e-5
*Node Output, nset=R2-1.DIAMETER
U1, 
** 
*Node Output, nset=R2
RF2, U2
*End Step