*Heading
**--------------------------------------------------------------------
** Job name: EXAMPLE_UVARM
** Generated by: David Morin
**--------------------------------------------------------------------
*Preprint, echo=NO, model=NO, history=NO, contact=NO
**--------------------------------------------------------------------
** PARTS
**--------------------------------------------------------------------
*Part, name=PATCH
*Node
1,0.9,0.9,0.3
2,0.9,0.6,0.3
3,0.9,0.3,0.3
4,0.9,0,0.3
5,0.9,0.9,0
6,0.9,0.6,0
7,0.9,0.3,0
8,0.9,0,0
9,0.6,0.9,0.3
10,0.6,0.6,0.3
11,0.6,0.3,0.3
12,0.6,0,0.3
13,0.6,0.9,0
14,0.6,0.6,0
15,0.6,0.3,0
16,0.6,0,0
17,0.3,0.9,0.3
18,0.3,0.6,0.3
19,0.3,0.3,0.3
20,0.3,0,0.3
** ... 12 like lines cut
*Element, type=C3D8R
 1,  9, 10, 14, 13,  1,  2,  6,  5
 2, 10, 11, 15, 14,  2,  3,  7,  6
 3, 11, 12, 16, 15,  3,  4,  8,  7
 4, 17, 18, 22, 21,  9, 10, 14, 13
 5, 18, 19, 23, 22, 10, 11, 15, 14
 6, 19, 20, 24, 23, 11, 12, 16, 15
 7, 25, 26, 30, 29, 17, 18, 22, 21
 8, 26, 27, 31, 30, 18, 19, 23, 22
 9, 27, 28, 32, 31, 19, 20, 24, 23
*Nset, nset=SYMY, generate
  4,  32,   4
*Nset, nset=SYMX, generate
 25,  32,   1
*Nset, nset=SYMZ
  5,  6,  7,  8, 13, 14, 15, 16, 21, 22, 23, 24, 29, 30, 31, 32
*Nset, nset=LOAD, generate
  1,  29,   4
*Elset, elset=ELEMENTS, generate
 1,  9,  1
*Solid Section, elset=ELEMENTS, material=EXAMPLE_UVARM, controls=EC-1
,
*End Part
**--------------------------------------------------------------------
** ASSEMBLY
**--------------------------------------------------------------------
*Assembly, name=Assembly
*Instance, name=PATCH-1, part=PATCH
*End Instance  
*End Assembly
**--------------------------------------------------------------------
** ELEMENT CONTROLS
**--------------------------------------------------------------------
*Section Controls, name=EC-1, hourglass=ENHANCED
1., 1., 1.
**--------------------------------------------------------------------
** MATERIALS
**--------------------------------------------------------------------
*material,name=EXAMPLE_UVARM
*elastic
210000.0, 0.3
*plastic
250.0, 0.0
350.0, 1.0
*User Output Variables
2
**--------------------------------------------------------------------
** BOUNDARY CONDITIONS
**--------------------------------------------------------------------
*Boundary
PATCH-1.SYMX, 1, 1
*Boundary
PATCH-1.SYMY, 2, 2
*Boundary
PATCH-1.SYMZ, 3, 3
**--------------------------------------------------------------------
** STEP
**--------------------------------------------------------------------
*Step, name=LOADING, nlgeom=YES, inc=1000
*Static
0.1, 2., 2e-06, 0.1
**--------------------------------------------------------------------
** BOUNDARY CONDITIONS
**--------------------------------------------------------------------
*Boundary
PATCH-1.LOAD, 2, 2, 1.0
**--------------------------------------------------------------------
** OUTPUT REQUESTS
**--------------------------------------------------------------------
*Restart, write, number interval=1, time marks=NO
**--------------------------------------------------------------------
** FIELD OUTPUT
**--------------------------------------------------------------------
*OUTPUT,FIELD
*ELEMENT OUTPUT
PEEQ,S,UVARM
*NODE OUTPUT
U
**--------------------------------------------------------------------
** HISTORY OUTPUT
**--------------------------------------------------------------------
*Output, history, variable=PRESELECT
*Output, history
*Node Output, nset=PATCH-1.LOAD
RF2
*End Step