*Heading
**--------------------------------------------------------------------
** Job name: EXAMPLE_UVARM
** Generated by: David Morin
**--------------------------------------------------------------------
*Preprint, echo=NO, model=NO, history=NO, contact=NO
**--------------------------------------------------------------------
** PARTS
**--------------------------------------------------------------------
*Part, name=ONE_ELEMENT
*Node
*Node
      1, 5,    5,    5
      2, 5,    0,    5
      3, 5,    0,    0
      4, 5,    5,    0
      5, 0,    0,    5
      6, 0,    0,    0
      7, 0,    5,    0
      8, 0,    5,    5  
*Element, type=C3D8R
1, 8, 5, 6, 7, 1, 2, 3, 4
*Nset, nset=CLAMP
  2,  3,  5,  6
*Nset, nset=SYMX
  5,  6,  7,  8
*Nset, nset=LOAD
  1,  4,  7,  8
*Nset, nset=SYMZ
  3,  4,  6,  7
*Nset, nset=DISP
  1
*Elset, elset=ELEMENTS
 1,
*Solid Section, elset=ELEMENTS, material=EXAMPLE_UVARM, controls=EC-1
,
*End Part
**--------------------------------------------------------------------
** ASSEMBLY
**--------------------------------------------------------------------
*Assembly, name=Assembly
*Instance, name=ONE_ELEMENT-1, part=ONE_ELEMENT
*End Instance
*Node
      1,           0.,          6.,           0.
      2,           0.,         -1.,           0.
*Nset, nset=REFPT_TOP
 1,
*Nset, nset=REFPT_BOT
 2,
*Surface, type=NODE, name=ONE_ELEMENT-1_LOAD_CNS_, internal
ONE_ELEMENT-1.LOAD, 1.
*Surface, type=NODE, name=ONE_ELEMENT-1_CLAMP_CNS_, internal
ONE_ELEMENT-1.CLAMP, 1.
**--------------------------------------------------------------------
** Constraint: MPC
**--------------------------------------------------------------------
*Coupling, constraint name="TOP CONSTRAINT", ref node=REFPT_TOP, surface=ONE_ELEMENT-1_LOAD_CNS_
*Kinematic
2, 2
*Coupling, constraint name="BOTTOM CONSTRAINT", ref node=REFPT_BOT, surface=ONE_ELEMENT-1_CLAMP_CNS_
*Kinematic
2, 2
*End Assembly
**--------------------------------------------------------------------
** ELEMENT CONTROLS
**--------------------------------------------------------------------
*Section Controls, name=EC-1, hourglass=ENHANCED
1., 1., 1.
**--------------------------------------------------------------------
** MATERIALS
**--------------------------------------------------------------------
*material,name=EXAMPLE_UVARM
*elastic
210000.0, 0.3
*plastic
250.0, 0.0
350.0, 1.0
*User Output Variables
2
**--------------------------------------------------------------------
** BOUNDARY CONDITIONS
**--------------------------------------------------------------------
*Boundary
ONE_ELEMENT-1.SYMX, 1, 1
*Boundary
ONE_ELEMENT-1.SYMZ, 3, 3
*Boundary
REFPT_TOP, 1, 1
REFPT_TOP, 3, 3
REFPT_TOP, 4, 4
REFPT_TOP, 5, 5
REFPT_TOP, 6, 6
*Boundary
REFPT_BOT, 1, 1
REFPT_BOT, 2, 2
REFPT_BOT, 3, 3
REFPT_BOT, 4, 4
REFPT_BOT, 5, 5
REFPT_BOT, 6, 6
**--------------------------------------------------------------------
** STEP
**--------------------------------------------------------------------
*Step, name=LOADING, nlgeom=YES, inc=1000
*Static
0.1, 2., 2e-06, 0.1
**--------------------------------------------------------------------
** BOUNDARY CONDITIONS
**--------------------------------------------------------------------
*Boundary
REFPT_TOP, 2, 2, 1.0
**--------------------------------------------------------------------
** OUTPUT REQUESTS
**--------------------------------------------------------------------
*Restart, write, number interval=1, time marks=NO
**--------------------------------------------------------------------
** FIELD OUTPUT
**--------------------------------------------------------------------
*OUTPUT,FIELD
*ELEMENT OUTPUT
PEEQ,S,UVARM
*NODE OUTPUT
U
**--------------------------------------------------------------------
** HISTORY OUTPUT
**--------------------------------------------------------------------
*Output, history, variable=PRESELECT
*Output, history
*Element Output, elset=ONE_ELEMENT-1.ELEMENTS
UVARM,LE
*End Step