*Heading
**--------------------------------------------------------------------
** Job name: EXAMPLE_VUSDFLD_V1
** Generated by: David Morin
**--------------------------------------------------------------------
*Preprint, echo=NO, model=NO, history=NO, contact=NO
**--------------------------------------------------------------------
** PARTS
**--------------------------------------------------------------------
*Part, name=TENS_1
*Node
      1, 5,    5,    5
      2, 5,    0,    5
      3, 5,    0,    0
      4, 5,    5,    0
      5, 0,    0,    5
      6, 0,    0,    0
      7, 0,    5,    0
      8, 0,    5,    5  
*Element, type=C3D8R
1, 8, 5, 6, 7, 1, 2, 3, 4
*Nset, nset=SYMY
  2,  3,  5,  6
*Nset, nset=SYMX
  5,  6,  7,  8
*Nset, nset=LOAD
  1,  4,  7,  8
*Nset, nset=SYMZ
  3,  4,  6,  7
*Nset, nset=DISP
  1
*Elset, elset=ELEMENTS
 1,
*Solid Section, elset=ELEMENTS, material=EXAMPLE_UHARD_RATE
,
*End Part
**
*Part, name=TENS_2
*Node
      1, 5,    5,    5
      2, 5,    0,    5
      3, 5,    0,    0
      4, 5,    5,    0
      5, 0,    0,    5
      6, 0,    0,    0
      7, 0,    5,    0
      8, 0,    5,    5  
*Element, type=C3D8R
1, 8, 5, 6, 7, 1, 2, 3, 4
*Nset, nset=SYMY
  2,  3,  5,  6
*Nset, nset=SYMX
  5,  6,  7,  8
*Nset, nset=LOAD
  1,  4,  7,  8
*Nset, nset=SYMZ
  3,  4,  6,  7
*Nset, nset=DISP
  1
*Elset, elset=ELEMENTS
 1,
*Solid Section, elset=ELEMENTS, material=EXAMPLE_UHARD_REF
,
*End Part
**--------------------------------------------------------------------
** ASSEMBLY
**--------------------------------------------------------------------
*Assembly, name=Assembly
*Instance, name=TENS_1-1, part=TENS_1
*End Instance
*Instance, name=TENS_2-1, part=TENS_2
*End Instance
*End Assembly
**--------------------------------------------------------------------
*Amplitude, name=Amp-1
          0.,           0.,        0.01,        1.0,    0.02,    1.0
**--------------------------------------------------------------------
** MATERIALS
**--------------------------------------------------------------------
*material,name=EXAMPLE_UHARD_REF
*elastic
210000.0, 0.3
*plastic, hardening=user, properties=16
** SIGMA0,      T1,    Q1,     T2,    Q2,    T3,     Q3, BLANK
    250.0, 10000.0,  10.0, 1000.0, 100.0, 100.0, 1000.0,   0.0
**      C,   PDOT0, BLANK,  BLANK, BLANK, BLANK,  BLANK, BLANK
      0.0,     0.0,   0.0,    0.0,   0.0,   0.0,    0.0,   0.0
**--------------------------------------------------------------------
*material,name=EXAMPLE_UHARD_RATE
*elastic
210000.0, 0.3
*plastic, hardening=user, properties=16
** SIGMA0,      T1,    Q1,     T2,    Q2,    T3,     Q3, BLANK
    250.0, 10000.0,  10.0, 1000.0, 100.0, 100.0, 1000.0,   0.0
**      C,   PDOT0, BLANK,  BLANK, BLANK, BLANK,  BLANK, BLANK
     0.01,   0.001,   0.0,    0.0,   0.0,   0.0,    0.0,   0.0
**--------------------------------------------------------------------
** BOUNDARY CONDITIONS
**--------------------------------------------------------------------
*Boundary
TENS_1-1.SYMY, YSYMM
*Boundary
TENS_1-1.SYMX, XSYMM
*Boundary
TENS_1-1.SYMZ, ZSYMM
**
*Boundary
TENS_2-1.SYMY, YSYMM
*Boundary
TENS_2-1.SYMX, XSYMM
*Boundary
TENS_2-1.SYMZ, ZSYMM
**--------------------------------------------------------------------
** STEP
**--------------------------------------------------------------------
*Step, name=LOADING, nlgeom=YES, inc=1000
*Static
1.0e-4, 0.02,  1e-08,  2.0e-4
**--------------------------------------------------------------------
** BOUNDARY CONDITIONS
**--------------------------------------------------------------------
*Boundary, amplitude=Amp-1
TENS_1-1.LOAD, 2, 2,  1.0
**
*Boundary, amplitude=Amp-1
TENS_2-1.LOAD, 2, 2, -1.0
**--------------------------------------------------------------------
** OUTPUT REQUESTS
**--------------------------------------------------------------------
*Restart, write, number interval=1, time marks=NO
**--------------------------------------------------------------------
** FIELD OUTPUT
**--------------------------------------------------------------------
*OUTPUT,FIELD
*ELEMENT OUTPUT
PEEQ,S,LE
*NODE OUTPUT
U
**--------------------------------------------------------------------
** HISTORY OUTPUT
**--------------------------------------------------------------------
*Output, history
*Node Output, nset=TENS_1-1.LOAD
RF2
*Node Output, nset=TENS_2-1.LOAD
RF2
*Node Output, nset=TENS_1-1.DISP
U2
*Node Output, nset=TENS_2-1.DISP
U2
*Output, history, variable=PRESELECT
*END STEP