*Heading
**--------------------------------------------------------------------
** Job name: EXAMPLE_VUMAT
** Generated by: David Morin
**--------------------------------------------------------------------
*Preprint, echo=NO, model=NO, history=NO, contact=NO
**--------------------------------------------------------------------
** PARTS
**--------------------------------------------------------------------
*Part, name=TENS_1
*Node
      1, 5,    5,    5
      2, 5,    0,    5
      3, 5,    0,    0
      4, 5,    5,    0
      5, 0,    0,    5
      6, 0,    0,    0
      7, 0,    5,    0
      8, 0,    5,    5  
*Element, type=C3D8R
1, 8, 5, 6, 7, 1, 2, 3, 4
*Nset, nset=CLAMP
  2,  3,  5,  6
*Nset, nset=SYMX
  5,  6,  7,  8
*Nset, nset=LOAD
  1,  4,  7,  8
*Elset, elset=ELEMENTS
 1,
*Solid Section, elset=ELEMENTS, material=EXAMPLE_VUMAT
,
*End Part
**
**--------------------------------------------------------------------
** ASSEMBLY
**--------------------------------------------------------------------
*Assembly, name=Assembly
*Instance, name=TENS_1-1, part=TENS_1
*End Instance
*Node
      1,           0.,          6.,           0.
      2,           0.,         -1.,           0.
*Nset, nset=REFPT_TOP
 1,
*Nset, nset=REFPT_BOT
 2,
*Surface, type=NODE, name=TENS_1-1_LOAD_CNS_, internal
TENS_1-1.LOAD, 1.
*Surface, type=NODE, name=TENS_1-1_CLAMP_CNS_, internal
TENS_1-1.CLAMP, 1.
**--------------------------------------------------------------------
** Constraint
**--------------------------------------------------------------------
*Coupling, constraint name="TOP CONSTRAINT", ref node=REFPT_TOP, surface=TENS_1-1_LOAD_CNS_
*Kinematic
2, 2
3, 3
*Coupling, constraint name="BOTTOM CONSTRAINT", ref node=REFPT_BOT, surface=TENS_1-1_CLAMP_CNS_
*Kinematic
2, 2
3, 3
*End Assembly
**--------------------------------------------------------------------
*Amplitude, name=Amp-1
          0.,           0.,       0.001,        1.0
**--------------------------------------------------------------------
** MATERIALS
**--------------------------------------------------------------------
*material,name=EXAMPLE_VUMAT
*density
7.8e-9
*user material, CONSTANTS=24
**      E,      NU, BLANK,  BLANK, BLANK, BLANK,  BLANK, BLANK
 210000.0,     0.3,   0.0,    0.0,   0.0,   0.0,    0.0,   0.0
** SIGMA0,      T1,    Q1,     T2,    Q2,    T3,     Q3, BLANK
    250.0, 10000.0,  10.0, 1000.0, 100.0, 100.0, 1000.0,   0.0
**     WC,   DCRIT, BLANK,  BLANK, BLANK, BLANK,  BLANK, BLANK
    100.0,     1.0
*depvar, delete=3
3
1, P, "Equivalent plastic strain"
2, D, "Damage"
3,STATUS, "Status variable"
**--------------------------------------------------------------------
** BOUNDARY CONDITIONS
**--------------------------------------------------------------------
*Boundary
REFPT_TOP, 1, 1
REFPT_TOP, 3, 3
REFPT_TOP, 4, 4
REFPT_TOP, 5, 5
REFPT_TOP, 6, 6
*Boundary
TENS_1-1.SYMX, XSYMM
*Boundary
REFPT_BOT, 1, 1
REFPT_BOT, 2, 2
REFPT_BOT, 3, 3
REFPT_BOT, 4, 4
REFPT_BOT, 5, 5
REFPT_BOT, 6, 6
**--------------------------------------------------------------------
** STEP
**--------------------------------------------------------------------
*Step, name=LOADING, nlgeom=YES
*Dynamic, Explicit,scale factor=0.5
, 0.02
*Bulk Viscosity
0.06, 1.2
**--------------------------------------------------------------------
** BOUNDARY CONDITIONS
**--------------------------------------------------------------------
*Boundary, amplitude=Amp-1, type=velocity
REFPT_TOP, 2, 2, 100.0
**--------------------------------------------------------------------
** OUTPUT REQUESTS
**--------------------------------------------------------------------
*Restart, write, number interval=1, time marks=NO
**--------------------------------------------------------------------
** FIELD OUTPUT
**--------------------------------------------------------------------
*OUTPUT,FIELD,NUMBER INTERVAL=100,TIME MARKS=YES
*ELEMENT OUTPUT
LE, PEEQ, S, SDV, STATUS
*NODE OUTPUT
U
**--------------------------------------------------------------------
** HISTORY OUTPUT
**--------------------------------------------------------------------
*Output, history, time interval=0.00001
*Node Output, nset=REFPT_TOP
RF2,U2
*Element Output, elset=TENS_1-1.ELEMENTS
SDV,S,LE
*Output, history, variable=PRESELECT, time interval=0.00001
*END STEP