*Heading
**--------------------------------------------------------------------
** Job name: EXAMPLE_VUMAT
** Generated by: David Morin
**--------------------------------------------------------------------
*Preprint, echo=NO, model=NO, history=NO, contact=NO
**--------------------------------------------------------------------
** PARTS
**--------------------------------------------------------------------
*Part, name=TENS_1
*Node
      1, 5,    5,    5
      2, 5,    0,    5
      3, 5,    0,    0
      4, 5,    5,    0
      5, 0,    0,    5
      6, 0,    0,    0
      7, 0,    5,    0
      8, 0,    5,    5  
*Element, type=C3D8R
1, 8, 5, 6, 7, 1, 2, 3, 4
*Nset, nset=SYMY
  2,  3,  5,  6
*Nset, nset=SYMX
  5,  6,  7,  8
*Nset, nset=LOAD
  1,  4,  7,  8
*Nset, nset=SYMZ
  3,  4,  6,  7
*Nset, nset=DISP
  1
*Elset, elset=ELEMENTS
 1,
*Solid Section, elset=ELEMENTS, material=EXAMPLE_VUMAT
,
*End Part
**
**--------------------------------------------------------------------
** ASSEMBLY
**--------------------------------------------------------------------
*Assembly, name=Assembly
*Instance, name=TENS_1-1, part=TENS_1
*End Instance
*End Assembly
**--------------------------------------------------------------------
*Amplitude, name=Amp-1
          0.,           0.,       0.001,        1.0
**--------------------------------------------------------------------
** MATERIALS
**--------------------------------------------------------------------
*material,name=EXAMPLE_VUMAT
*density
7.8e-9
*elastic
210000.0, 0.3
*plastic, hardening=user, properties=16
** SIGMA0,      T1,    Q1,     T2,    Q2,    T3,     Q3, BLANK
    250.0, 10000.0,  10.0, 1000.0, 100.0, 100.0, 1000.0,   0.0
**      C,   PDOT0, BLANK,  BLANK, BLANK, BLANK,  BLANK, BLANK
      0.0,     0.0,   0.0,    0.0,   0.0,   0.0,    0.0,   0.0
**--------------------------------------------------------------------
** BOUNDARY CONDITIONS
**--------------------------------------------------------------------
*Boundary
TENS_1-1.SYMY, YSYMM
*Boundary
TENS_1-1.SYMX, XSYMM
*Boundary
TENS_1-1.SYMZ, ZSYMM
**
**--------------------------------------------------------------------
** STEP
**--------------------------------------------------------------------
*Step, name=LOADING
*Dynamic, Explicit,scale factor=0.5
, 0.01
*Bulk Viscosity
0.06, 1.2
**--------------------------------------------------------------------
** BOUNDARY CONDITIONS
**--------------------------------------------------------------------
*Boundary, amplitude=Amp-1, type=velocity
TENS_1-1.LOAD, 2, 2, 100.0
**--------------------------------------------------------------------
** OUTPUT REQUESTS
**--------------------------------------------------------------------
*Restart, write, number interval=1, time marks=NO
**--------------------------------------------------------------------
** FIELD OUTPUT
**--------------------------------------------------------------------
*OUTPUT,FIELD,NUMBER INTERVAL=100,TIME MARKS=YES
*ELEMENT OUTPUT
PEEQ,S,LE
*NODE OUTPUT
U
**--------------------------------------------------------------------
** HISTORY OUTPUT
**--------------------------------------------------------------------
*Output, history, time interval=0.001
*Node Output, nset=TENS_1-1.LOAD
RF2
*Node Output, nset=TENS_1-1.DISP
U2
*Output, history, variable=PRESELECT, time interval=0.00001
*END STEP