*Heading
**--------------------------------------------------------------------
** Job name: EXAMPLE_VUSDFLD_V1
** Generated by: David Morin
**--------------------------------------------------------------------
*Preprint, echo=NO, model=NO, history=NO, contact=NO
**--------------------------------------------------------------------
** PARTS
**--------------------------------------------------------------------
*Part, name=TENS
*Node
      1, 5,    5,    5
      2, 5,    0,    5
      3, 5,    0,    0
      4, 5,    5,    0
      5, 0,    0,    5
      6, 0,    0,    0
      7, 0,    5,    0
      8, 0,    5,    5  
*Element, type=C3D8R
1, 8, 5, 6, 7, 1, 2, 3, 4
*Nset, nset=SYMY
  2,  3,  5,  6
*Nset, nset=SYMX
  5,  6,  7,  8
*Nset, nset=LOAD
  1,  4,  7,  8
*Nset, nset=SYMZ
  3,  4,  6,  7
*Nset, nset=DISP
  1
*Elset, elset=ELEMENTS
 1,
*Solid Section, elset=ELEMENTS, material=EXAMPLE_VUSDLFD_V1
,
*End Part
**
*Part, name=COMP
*Node
      1, 5,    5,    5
      2, 5,    0,    5
      3, 5,    0,    0
      4, 5,    5,    0
      5, 0,    0,    5
      6, 0,    0,    0
      7, 0,    5,    0
      8, 0,    5,    5  
*Element, type=C3D8R
1, 8, 5, 6, 7, 1, 2, 3, 4
*Nset, nset=SYMY
  2,  3,  5,  6
*Nset, nset=SYMX
  5,  6,  7,  8
*Nset, nset=LOAD
  1,  4,  7,  8
*Nset, nset=SYMZ
  3,  4,  6,  7
*Nset, nset=DISP
  1
*Elset, elset=ELEMENTS
 1,
*Solid Section, elset=ELEMENTS, material=EXAMPLE_VUSDLFD_V1
,
*End Part
**--------------------------------------------------------------------
** ASSEMBLY
**--------------------------------------------------------------------
*Assembly, name=Assembly
*Instance, name=TENS-1, part=TENS
*End Instance
*Instance, name=COMP-1, part=COMP
*End Instance
*End Assembly
**--------------------------------------------------------------------
*Amplitude, name=Amp-1, definition=SMOOTH STEP
          0.,           0.,        0.001,           1
**--------------------------------------------------------------------
** MATERIALS
**--------------------------------------------------------------------
*material,name=EXAMPLE_VUSDLFD_V1
*density
7.8e-9
*elastic,dependencies=1
**     E,  NU, TEMP,    F
 21000.0, 0.3,  0.0, -1.0
210000.0, 0.3,  0.0,  1.0
*plastic
250.0, 0.0
350.0, 1.0
*User defined field
**--------------------------------------------------------------------
** BOUNDARY CONDITIONS
**--------------------------------------------------------------------
*Boundary
TENS-1.SYMY, YSYMM
*Boundary
TENS-1.SYMX, XSYMM
*Boundary
TENS-1.SYMZ, ZSYMM
**
*Boundary
COMP-1.SYMY, YSYMM
*Boundary
COMP-1.SYMX, XSYMM
*Boundary
COMP-1.SYMZ, ZSYMM
**--------------------------------------------------------------------
** STEP
**--------------------------------------------------------------------
*Step, name=LOADING
*Dynamic, Explicit,scale factor=0.5
, 0.01
*Bulk Viscosity
0.06, 1.2
**--------------------------------------------------------------------
** BOUNDARY CONDITIONS
**--------------------------------------------------------------------
*Boundary, amplitude=Amp-1, type=VELOCITY
TENS-1.LOAD, 2, 2, 100.0
**
*Boundary, amplitude=Amp-1, type=VELOCITY
COMP-1.LOAD, 2, 2,-100.0
**--------------------------------------------------------------------
** OUTPUT REQUESTS
**--------------------------------------------------------------------
*Restart, write, number interval=1, time marks=NO
**--------------------------------------------------------------------
** FIELD OUTPUT
**--------------------------------------------------------------------
*OUTPUT,FIELD,NUMBER INTERVAL=100,TIME MARKS=YES
*ELEMENT OUTPUT
PEEQ,S,FV
*NODE OUTPUT
U
**--------------------------------------------------------------------
** HISTORY OUTPUT
**--------------------------------------------------------------------
*Output, history, time interval=0.001
*Node Output, nset=TENS-1.LOAD
RF2
*Node Output, nset=COMP-1.LOAD
RF2
*Node Output, nset=TENS-1.DISP
U2
*Node Output, nset=COMP-1.DISP
U2
*Output, history, variable=PRESELECT, time interval=0.01
*END STEP