*Heading
**--------------------------------------------------------------------
** Job name: EXAMPLE_VUSDFLD_V2
** Generated by: David Morin
**--------------------------------------------------------------------
*Preprint, echo=NO, model=NO, history=NO, contact=NO
**--------------------------------------------------------------------
** PARTS
**--------------------------------------------------------------------
*Part, name=PATCH
*NODE
1,0,0,0
2,0.5,0,0
3,1,0,0
4,1.5,0,0
5,2,0,0
6,2.5,0,0
7,3,0,0
8,3.5,0,0
9,4,0,0
10,4.5,0,0
11,5,0,0
12,0,0.5,0
13,0.5,0.5,0
14,1,0.5,0
15,1.5,0.5,0
16,2,0.5,0
17,2.5,0.5,0
18,3,0.5,0
19,3.5,0.5,0
20,4,0.5,0
** ... 101 like lines cut
*Element, type=S4R
  1,  1,  2, 13, 12
  2,  2,  3, 14, 13
  3,  3,  4, 15, 14
  4,  4,  5, 16, 15
  5,  5,  6, 17, 16
  6,  6,  7, 18, 17
  7,  7,  8, 19, 18
  8,  8,  9, 20, 19
  9,  9, 10, 21, 20
 10, 10, 11, 22, 21
 11, 12, 13, 24, 23
 12, 13, 14, 25, 24
 13, 14, 15, 26, 25
 14, 15, 16, 27, 26
 15, 16, 17, 28, 27
 16, 17, 18, 29, 28
 17, 18, 19, 30, 29
 18, 19, 20, 31, 30
 19, 20, 21, 32, 31
 20, 21, 22, 33, 32
** ... 80 like lines cut
*Nset, nset=CLAMP
1, 2, 3,4,5,6,7,8
9,10,11
*Nset, nset=SYMX
 1, 12, 23,34,45,56,67,78
89,100,111
*Nset, nset=LOAD
111,112,113,114,115,116,117,118
119,120,121
*Elset, elset=ELEMENTS, generate
 1,  100,  1
*Shell Section, elset=ELEMENTS, material=EXAMPLE_VUSDLFD_V2
0.5, 3
*End Part
**--------------------------------------------------------------------
** ASSEMBLY
**--------------------------------------------------------------------
*Assembly, name=Assembly
*Instance, name=PATCH-1, part=PATCH
*End Instance
*Node
      1,           0.,          6.,           0.
      2,           0.,         -1.,           0.
*Nset, nset=REFPT_TOP
 1,
*Nset, nset=REFPT_BOT
 2,
*Surface, type=NODE, name=PATCH-1_LOAD_CNS_, internal
PATCH-1.LOAD, 1.
*Surface, type=NODE, name=PATCH-1_CLAMP_CNS_, internal
PATCH-1.CLAMP, 1.
**--------------------------------------------------------------------
** Constraint: MPC
**--------------------------------------------------------------------
*MPC
BEAM, PATCH-1.LOAD, REFPT_TOP
*MPC
BEAM, PATCH-1.CLAMP, REFPT_BOT
*End Assembly
**--------------------------------------------------------------------
*Amplitude, name=Amp-1, definition=SMOOTH STEP
0.,  0.,  0.001, 1
**--------------------------------------------------------------------
** MATERIALS
**--------------------------------------------------------------------
*material,name=EXAMPLE_VUSDLFD_V2
*density
7.8e-9
*elastic
210000.0, 0.3
*plastic
250.0, 0.0
350.0, 1.0
*User defined field, properties=1
100.0
*Depvar, delete=3
3,
1,PEEQ,"Equivalent plastic strain"
2,D,"Damage variable"
3,STATUS,"Failure status"
**--------------------------------------------------------------------
** BOUNDARY CONDITIONS
**--------------------------------------------------------------------
*Boundary
REFPT_TOP, 1, 1
REFPT_TOP, 3, 3
REFPT_TOP, 4, 4
REFPT_TOP, 5, 5
REFPT_TOP, 6, 6
*Boundary
REFPT_BOT, 1, 1
REFPT_BOT, 2, 2
REFPT_BOT, 3, 3
REFPT_BOT, 4, 4
REFPT_BOT, 5, 5
REFPT_BOT, 6, 6
*Boundary
PATCH-1.SYMX, 1, 1
PATCH-1.SYMX, 5, 5
PATCH-1.SYMX, 6, 6
**--------------------------------------------------------------------
** STEP
**--------------------------------------------------------------------
*Step, name=LOADING, nlgeom=YES
*Dynamic, Explicit
, 0.01
*Bulk Viscosity
0.06, 1.2
**--------------------------------------------------------------------
** BOUNDARY CONDITIONS
**--------------------------------------------------------------------
*Boundary, amplitude=Amp-1, type=VELOCITY
REFPT_TOP, 2, 2, 100.0
**--------------------------------------------------------------------
** OUTPUT REQUESTS
**--------------------------------------------------------------------
*Restart, write, number interval=1, time marks=NO
**--------------------------------------------------------------------
** FIELD OUTPUT
**--------------------------------------------------------------------
*Output, field, number interval=100, time marks=YES
*Element Output, directions=YES
PEEQ, S, SDV, STATUS, STH
*Node Output
U
**--------------------------------------------------------------------
** HISTORY OUTPUT
**--------------------------------------------------------------------
*Output, history, variable=PRESELECT, time interval=0.00001
*Output, history, time interval=0.00001
*Node Output, nset=REFPT_TOP
RF2,U2
*End Step	